Version 4
SHEET 1 1176 980
WIRE -128 -96 -416 -96
WIRE -64 -96 -128 -96
WIRE -416 -32 -416 -96
WIRE -128 -32 -128 -96
WIRE 976 -32 976 -96
WIRE 976 -32 816 -32
WIRE 1120 -32 976 -32
WIRE 816 16 816 -32
WIRE 976 96 976 -32
WIRE 1120 96 1120 -32
WIRE -416 128 -416 48
WIRE -192 128 -416 128
WIRE -128 128 -128 48
WIRE -128 128 -192 128
WIRE 32 128 -128 128
WIRE 144 128 112 128
WIRE 816 144 816 96
WIRE -128 240 -128 128
WIRE 816 288 816 224
WIRE 976 288 976 160
WIRE 976 288 816 288
WIRE 1120 288 1120 176
WIRE 1120 288 976 288
WIRE -128 320 -128 304
WIRE 976 352 976 288
WIRE -128 464 -128 400
FLAG -64 -96 Vbattery
FLAG 144 128 Valt
FLAG -128 464 0
FLAG -192 128 Chassis
FLAG 976 -96 Valt
FLAG 976 352 Chassis
SYMBOL Misc\\battery -416 -48 R0
WINDOW 123 0 0 Left 2
WINDOW 39 24 132 Left 2
SYMATTR InstName Tractor_Battery
SYMATTR Value 12
SYMATTR SpiceLine Rser=100
SYMBOL Misc\\EuropeanResistor -144 -48 R0
SYMATTR InstName Tractor_Electronics
SYMATTR Value 1k
SYMBOL voltage 128 128 R90
WINDOW 0 -58 -66 VRight 2
WINDOW 3 65 -22 VRight 2
WINDOW 123 0 0 Left 2
WINDOW 39 0 0 Left 2
SYMATTR InstName Controller_Alternator
SYMATTR Value SINE(0 12 2500)
SYMBOL voltage -128 304 R0
WINDOW 0 -161 3 Left 2
SYMATTR InstName Static_BuildUP
SYMBOL cap -144 240 R0
SYMATTR InstName CES
SYMATTR Value 10
SYMATTR SpiceLine V=100
SYMBOL ind 800 128 R0
SYMATTR InstName L1
SYMATTR Value 10m
SYMBOL res 800 0 R0
SYMATTR InstName R1
SYMATTR Value 100
SYMBOL cap 960 96 R0
SYMATTR InstName C1
SYMATTR Value 10µ
SYMBOL ind 1104 80 R0
SYMATTR InstName L2
SYMATTR Value 1µ
TEXT -344 -136 Left 2 ;Vehicle Electronics
TEXT -480 192 VLeft 1 ;Assuming that the alternator is recharging the batter
TEXT 864 -200 Left 2 ;Mock Controll System
